Version 4
SHEET 1 880 680
WIRE 192 64 32 64
WIRE 320 64 256 64
WIRE 432 64 400 64
WIRE 448 64 432 64
WIRE 544 64 448 64
WIRE 448 128 448 64
WIRE 32 144 32 64
WIRE 544 144 544 64
WIRE 32 240 32 224
WIRE 448 240 448 208
WIRE 544 240 544 208
FLAG 448 240 0
FLAG 32 240 0
FLAG 432 64 out
FLAG 544 240 0
SYMBOL voltage 32 128 R0
WINDOW 123 24 124 Left 2
WINDOW 39 0 0 Left 0
SYMATTR InstName V1
SYMATTR Value SINE(1.85 2.32 1k)
SYMATTR Value2 AC 2.32
SYMBOL res 416 48 R90
WINDOW 0 0 56 VBottom 2
WINDOW 3 32 56 VTop 2
SYMATTR InstName R1
SYMATTR Value 39
SYMBOL cap 256 48 R90
WINDOW 0 0 32 VBottom 2
WINDOW 3 32 32 VTop 2
SYMATTR InstName C1
SYMATTR Value 100µ
SYMBOL res 432 112 R0
SYMATTR InstName R2
SYMATTR Value 64
SYMBOL cap 528 144 R0
SYMATTR InstName C2
SYMATTR Value 100n
TEXT 22 280 Left 2 !;ac dec 100 10 100k
TEXT -520 96 Left 2 ;Audio range = 300Hz to 3kHz\nmax. 1Vrms out (0dBV) for OHIS headphone
TEXT 24 304 Left 2 !.tran 1
